LTspice 24.1.10 for Windows
Circuit: C:\Users\antip\OneDrive\Desktop\Школа\Функциональная Схемотехника\Лаб 1\decoder.net
Start Time: Tue Oct 14 22:28:00 2025
solver = Normal
Maximum thread count: 16
tnom = 27
temp = 27
method = trap
WARNING: Node x1:nc_01 is floating.
WARNING: Node x4:nc_01 is floating.
WARNING: Node x5:nc_01 is floating.
WARNING: Node x6:nc_01 is floating.
WARNING: Node x7:nc_01 is floating.
WARNING: Node x8:nc_01 is floating.
WARNING: Node x9:nc_01 is floating.
WARNING: Node x11:nc_01 is floating.
WARNING: Node x12:nc_01 is floating.
WARNING: Node x14:nc_01 is floating.
WARNING: Node x15:nc_01 is floating.
WARNING: Node x16:nc_01 is floating.
WARNING: Node x17:nc_01 is floating.
WARNING: Node x18:nc_01 is floating.
WARNING: Node x22:nc_01 is floating.
WARNING: Node x2:nc_01 is floating.
WARNING: Node x3:nc_01 is floating.
WARNING: Node x10:nc_01 is floating.
WARNING: Node x13:nc_01 is floating.
WARNING: Node x19:nc_01 is floating.
WARNING: Node x20:nc_01 is floating.
WARNING: Node x21:nc_01 is floating.
WARNING: Node x23:nc_01 is floating.
WARNING: Node x24:nc_01 is floating.
WARNING: Node x25:nc_01 is floating.
WARNING: Node x26:nc_01 is floating.
WARNING: Node x27:nc_01 is floating.

Direct Newton iteration failed to find .op point.  (Use ".option noopiter" to skip.)
Starting Gmin stepping
Gmin = 10
Gmin = 1.07374
Gmin = 0.115292
Gmin = 0.0123794
Gmin = 0.00132923
Gmin = 0.000142725
Gmin = 1.5325e-05
Gmin = 1.6455e-06
Gmin = 1.76685e-07
Gmin = 1.89714e-08
Gmin = 2.03704e-09
Gmin = 2.18725e-10
Gmin = 2.34854e-11
Gmin = 2.52173e-12
Gmin = 2.70769e-13
Gmin = 0
Gmin stepping succeeded in finding the operating point.

Total elapsed time: 0.547 seconds.

Files loaded:
C:\Users\antip\OneDrive\Desktop\Школа\Функциональная Схемотехника\Лаб 1\decoder.net
C:\Users\antip\AppData\Local\LTspice\lib\cmp\standard.mos
C:\Users\antip\OneDrive\Desktop\Школа\Функциональная Схемотехника\Лаб 1\90nm_bulk.txt

