LTspice 24.1.10 for Windows
Circuit: C:\Users\antip\OneDrive\Desktop\Школа\Функциональная Схемотехника\Лаб 1\decoder_final.net
Start Time: Tue Oct 14 23:05:57 2025
solver = Normal
Maximum thread count: 16
tnom = 27
temp = 27
method = trap
WARNING: Node a is floating.
WARNING: Node x1:nc_01 is floating.
WARNING: Node x4:nc_01 is floating.
WARNING: Node x5:nc_01 is floating.
WARNING: Node x6:nc_01 is floating.
WARNING: Node x7:nc_01 is floating.
WARNING: Node x8:nc_01 is floating.
WARNING: Node x9:nc_01 is floating.
WARNING: Node x11:nc_01 is floating.
WARNING: Node x12:nc_01 is floating.
WARNING: Node x14:nc_01 is floating.
WARNING: Node x15:nc_01 is floating.
WARNING: Node x16:nc_01 is floating.
WARNING: Node x17:nc_01 is floating.
WARNING: Node x18:nc_01 is floating.
WARNING: Node x22:nc_01 is floating.
WARNING: Node x2:nc_01 is floating.
WARNING: Node x3:nc_01 is floating.
WARNING: Node x10:nc_01 is floating.
WARNING: Node x13:nc_01 is floating.
WARNING: Node x19:nc_01 is floating.
WARNING: Node x20:nc_01 is floating.
WARNING: Node x21:nc_01 is floating.
WARNING: Node x23:nc_01 is floating.
WARNING: Node x24:nc_01 is floating.
WARNING: Node x25:nc_01 is floating.
WARNING: Node x26:nc_01 is floating.
WARNING: Node x27:nc_01 is floating.

.OP point found by inspection.
Total elapsed time: 0.582 seconds.

Files loaded:
C:\Users\antip\OneDrive\Desktop\Школа\Функциональная Схемотехника\Лаб 1\decoder_final.net
C:\Users\antip\AppData\Local\LTspice\lib\cmp\standard.mos
C:\Users\antip\OneDrive\Desktop\Школа\Функциональная Схемотехника\Лаб 1\90nm_bulk.txt

