LTspice 24.1.10 for Windows
Circuit: C:\Users\antip\OneDrive\Desktop\Школа\Функциональная Схемотехника\Лаб 1\test_decoder.net
Start Time: Tue Oct 14 23:28:45 2025
solver = Normal
Maximum thread count: 16
tnom = 27
temp = 27
method = trap
WARNING: Node x1:x1:nc_01 is floating.
WARNING: Node x1:x4:nc_01 is floating.
WARNING: Node x1:x5:nc_01 is floating.
WARNING: Node x1:x6:nc_01 is floating.
WARNING: Node x1:x7:nc_01 is floating.
WARNING: Node x1:x8:nc_01 is floating.
WARNING: Node x1:x9:nc_01 is floating.
WARNING: Node x1:x11:nc_01 is floating.
WARNING: Node x1:x12:nc_01 is floating.
WARNING: Node x1:x14:nc_01 is floating.
WARNING: Node x1:x15:nc_01 is floating.
WARNING: Node x1:x16:nc_01 is floating.
WARNING: Node x1:x17:nc_01 is floating.
WARNING: Node x1:x18:nc_01 is floating.
WARNING: Node x1:x22:nc_01 is floating.
WARNING: Node x1:x2:nc_01 is floating.
WARNING: Node x1:x3:nc_01 is floating.
WARNING: Node x1:x10:nc_01 is floating.
WARNING: Node x1:x13:nc_01 is floating.
WARNING: Node x1:x19:nc_01 is floating.
WARNING: Node x1:x20:nc_01 is floating.
WARNING: Node x1:x21:nc_01 is floating.
WARNING: Node x1:x23:nc_01 is floating.
WARNING: Node x1:x24:nc_01 is floating.
WARNING: Node x1:x25:nc_01 is floating.
WARNING: Node x1:x26:nc_01 is floating.
WARNING: Node x1:x27:nc_01 is floating.

Direct Newton iteration failed to find .op point.  (Use ".option noopiter" to skip.)
Starting Gmin stepping
Gmin = 10
Gmin = 1.07374
Gmin = 0.115292
Gmin = 0.0123794
Gmin = 0.00132923
Gmin = 0.000142725
Gmin = 1.5325e-05
Gmin = 1.6455e-06
Gmin = 1.76685e-07
Gmin = 1.89714e-08
Gmin = 2.03704e-09
Gmin = 2.18725e-10
Gmin = 2.34854e-11
Gmin = 2.52173e-12
Gmin = 2.70769e-13
Gmin = 0
Gmin stepping succeeded in finding the operating point.

Changing Tseed to 3.90625e-09
Changing Tseed to 3.90625e-11
Total elapsed time: 0.653 seconds.

Files loaded:
C:\Users\antip\OneDrive\Desktop\Школа\Функциональная Схемотехника\Лаб 1\test_decoder.net
C:\Users\antip\AppData\Local\LTspice\lib\cmp\standard.mos
C:\Users\antip\OneDrive\Desktop\Школа\Функциональная Схемотехника\Лаб 1\90nm_bulk.txt

